Circuit: * C:\Program Files\LTC\LTspiceIV\LTSpice_jeffs\dc_motor_testbed.asc

Direct Newton iteration for .op point succeeded.

Date: Wed Aug 24 14:13:46 2016
Total elapsed time: 6.789 seconds.

tnom = 27
temp = 27
method = modified trap
totiter = 1665163
traniter = 1665160
tranpoints = 481851
accept = 346484
rejected = 135367
matrix size = 13
fillins = 3
solver = Normal
Matrix Compiler1: 460 bytes object code size  0.5/0.5/[0.4]
Matrix Compiler2: 819 bytes object code size  0.3/0.5/[0.3]


